DATA/Data_ES_Barry.m
function mpc = Data_ES_Barry
%%-----  Topo Data  -----%%																																
%% system MVA base																																
mpc.baseMVA = 100;																																
																																
%% bus data																																
%	bus_i	type	Pd	Qd	Gs	Bs	area	Vm	Va	baseKV	zone	Vmax	Vmin																			
mpc.bus = [  %% (Pd and Qd are specified in kW & kVAr here, and this value is the original value for reference, and load power is shown below)																																
	1	3	0	0	0	0	1	1	0	12.66	1	1	1;																			
	2	1	100	60	0	0	1	1	0	12.66	1	1.1	0.9;																			
	3	1	90	40	0	0	1	1	0	12.66	1	1.1	0.9;																			
	4	1	120	80	0	0	1	1	0	12.66	1	1.1	0.9;																			
	5	1	60	30	0	0	1	1	0	12.66	1	1.1	0.9;																			
	6	1	60	20	0	0	1	1	0	12.66	1	1.1	0.9;																			
	7	1	200	100	0	0	1	1	0	12.66	1	1.1	0.9;																			
	8	1	200	100	0	0	1	1	0	12.66	1	1.1	0.9;																			
	9	1	60	20	0	0	1	1	0	12.66	1	1.1	0.9;																			
	10	1	60	20	0	0	1	1	0	12.66	1	1.1	0.9;																			
	11	1	45	30	0	0	1	1	0	12.66	1	1.1	0.9;																			
	12	1	60	35	0	0	1	1	0	12.66	1	1.1	0.9;																			
	13	1	60	35	0	0	1	1	0	12.66	1	1.1	0.9;																			
	14	1	120	80	0	0	1	1	0	12.66	1	1.1	0.9;																			
	15	1	60	10	0	0	1	1	0	12.66	1	1.1	0.9;																			
	16	1	60	20	0	0	1	1	0	12.66	1	1.1	0.9;																			
	17	1	60	20	0	0	1	1	0	12.66	1	1.1	0.9;																			
	18	2	90	40	0	0	1	1	0	12.66	1	1.1	0.9;																			
	19	1	90	40	0	0	1	1	0	12.66	1	1.1	0.9;																			
	20	1	90	40	0	0	1	1	0	12.66	1	1.1	0.9;																			
	21	1	90	40	0	0	1	1	0	12.66	1	1.1	0.9;																			
	22	1	90	40	0	0	1	1	0	12.66	1	1.1	0.9;																			
	23	1	90	50	0	0	1	1	0	12.66	1	1.1	0.9;																			
	24	1	420	200	0	0	1	1	0	12.66	1	1.1	0.9;																			
	25	1	420	200	0	0	1	1	0	12.66	1	1.1	0.9;																			
	26	1	60	25	0	0	1	1	0	12.66	1	1.1	0.9;																			
	27	1	60	25	0	0	1	1	0	12.66	1	1.1	0.9;																			
	28	1	60	20	0	0	1	1	0	12.66	1	1.1	0.9;																			
	29	1	120	70	0	0	1	1	0	12.66	1	1.1	0.9;																			
	30	1	200	600	0	0	1	1	0	12.66	1	1.1	0.9;																			
	31	1	150	70	0	0	1	1	0	12.66	1	1.1	0.9;																			
	32	1	210	100	0	0	1	1	0	12.66	1	1.1	0.9;																			
	33	2	60	40	0	0	1	1	0	12.66	1	1.1	0.9;																			
];																																
																																
%% generator data(here, status=1 means this gen is a CHP unit, status=2 means this gen is a thermal unit)																																
%	bus	Pg	Qg	Qmax	Qmin	Vg	mBase	status	Pmax	Pmin	Pc1	Pc2	Qc1min	Qc1max	Qc2min	Qc2max	ramp_agc	ramp_10	ramp_30	ramp_q	apf											
mpc.gen = [																																
	1	0	0	100	-100	1.05	100	1	50	0	0	0	0	0	0	0	0	0	0	0	0;											
	18	0	0	100	-100	1.03	100	1	50	0	0	0	0	0	0	0	0	0	0	0	0;											
	33	0	0	100	-100	1.03	100	1	50	0	0	0	0	0	0	0	0	0	0	0	0;											
];																																
																																
%% branch data																																
%	fbus	tbus	r	x	b	rateA	rateB	rateC	ratio	angle	status	angmin	angmax																			
mpc.branch = [  %% (r and x specified in ohms here)																																
	1	2	0.0922	0.047	0	0	0	0	0	0	1	-360	360;																			
	2	3	0.493	0.2511	0	0	0	0	0	0	1	-360	360;																			
	3	4	0.366	0.1864	0	0	0	0	0	0	1	-360	360;																			
	4	5	0.3811	0.1941	0	0	0	0	0	0	1	-360	360;																			
	5	6	0.819	0.707	0	0	0	0	0	0	1	-360	360;																			
	6	7	0.1872	0.6188	0	0	0	0	0	0	1	-360	360;																			
	7	8	0.7114	0.2351	0	0	0	0	0	0	1	-360	360;																			
	8	9	1.03	0.74	0	0	0	0	0	0	1	-360	360;																			
	9	10	1.044	0.74	0	0	0	0	0	0	1	-360	360;																			
	10	11	0.1966	0.065	0	0	0	0	0	0	1	-360	360;																			
	11	12	0.3744	0.1238	0	0	0	0	0	0	1	-360	360;																			
	12	13	1.468	1.155	0	0	0	0	0	0	1	-360	360;																			
	13	14	0.5416	0.7129	0	0	0	0	0	0	1	-360	360;																			
	14	15	0.591	0.526	0	0	0	0	0	0	1	-360	360;																			
	15	16	0.7463	0.545	0	0	0	0	0	0	1	-360	360;																			
	16	17	1.289	1.721	0	0	0	0	0	0	1	-360	360;																			
	17	18	0.732	0.574	0	0	0	0	0	0	1	-360	360;																			
	2	19	0.164	0.1565	0	0	0	0	0	0	1	-360	360;																			
	19	20	1.5042	1.3554	0	0	0	0	0	0	1	-360	360;																			
	20	21	0.4095	0.4784	0	0	0	0	0	0	1	-360	360;																			
	21	22	0.7089	0.9373	0	0	0	0	0	0	1	-360	360;																			
	3	23	0.4512	0.3083	0	0	0	0	0	0	1	-360	360;																			
	23	24	0.898	0.7091	0	0	0	0	0	0	1	-360	360;																			
	24	25	0.896	0.7011	0	0	0	0	0	0	1	-360	360;																			
	6	26	0.203	0.1034	0	0	0	0	0	0	1	-360	360;																			
	26	27	0.2842	0.1447	0	0	0	0	0	0	1	-360	360;																			
	27	28	1.059	0.9337	0	0	0	0	0	0	1	-360	360;																			
	28	29	0.8042	0.7006	0	0	0	0	0	0	1	-360	360;																			
	29	30	0.5075	0.2585	0	0	0	0	0	0	1	-360	360;																			
	30	31	0.9744	0.963	0	0	0	0	0	0	1	-360	360;																			
	31	32	0.3105	0.3619	0	0	0	0	0	0	1	-360	360;																			
	32	33	0.341	0.5302	0	0	0	0	0	0	1	-360	360;																			
	21	8	2	2	0	0	0	0	0	0	0	-360	360;																			
	9	15	2	2	0	0	0	0	0	0	0	-360	360;																			
	12	22	2	2	0	0	0	0	0	0	0	-360	360;																			
	18	33	0.5	0.5	0	0	0	0	0	0	0	-360	360;																			
	25	29	0.5	0.5	0	0	0	0	0	0	0	-360	360;																			
];																																
																																
%%-----  OPF Data  -----%%																																
%% generator cost data (only thermal unit)																																
%	1	startup	shutdown	n	x1	y1	...	xn	yn																							
%	2	startup	shutdown	n	c(n-1)	...	c0																									
mpc.gencost = [																																
	18	0	0	0	38	0.172	0																									
	33	0	0	0	36	0.186	0																									
];																																
																																
%% load active power (MW)																																
load = [																																
%bus(node)1	bus2	bus3	bus4	bus5	bus6	bus7	bus8	bus9	bus10	bus11	bus12	bus13	bus14	bus15	bus16	bus17	bus18	bus19	bus20	bus21	bus22	bus23	bus24	bus25	bus26	bus27	bus28	bus29	bus30	bus31	bus32	bus33 (MW)
0	0.722848233	0.744762145	0.753322937	0.725526247	0.098057155	0.154057722	0.707455741	0.715065144	0.734702796	0.096306545	0.429960196	0.091181496	0.113147288	0.098162299	0.080973824	0.098385091	0.101617177	0.083656642	0.080287676	0.115516183	0.089433541	0.08699576	0.106303014	0.092884198	0.127202114	0.129152998	0.096517564	0.125868301	0.439961048	0.079222695	0.12202978	0.70635925
0	0.716571034	0.718013764	0.730474514	0.742793422	0.104097006	0.154462878	0.746773278	0.718589064	0.725179727	0.106314323	0.371690144	0.080343717	0.081665218	0.092289265	0.099154542	0.123103405	0.111443226	0.091423375	0.122880103	0.095853083	0.111994766	0.103999165	0.094630464	0.126014756	0.117391142	0.164644444	0.121305311	0.083702977	0.376556684	0.078880793	0.121524171	0.70635925
0	0.744719987	0.735727337	0.733359054	0.750723484	0.116679484	0.154734517	0.715319725	0.738405706	0.716986669	0.101532073	0.375738625	0.113620246	0.080207559	0.086150759	0.090988138	0.09125558	0.086979794	0.100882651	0.118413209	0.092138761	0.124241804	0.106891344	0.086471036	0.110412225	0.122255468	0.134769871	0.086522919	0.108460046	0.376589242	0.0785047	0.120968	0.70635925
0	0.709857907	0.729307943	0.717412105	0.709151666	0.08094844	0.158502997	0.714628862	0.746789875	0.745967092	0.110777319	0.347740859	0.078886478	0.092830623	0.110054679	0.102549542	0.123957192	0.105077162	0.110402745	0.094712962	0.087018429	0.078849827	0.087918289	0.086135512	0.122131241	0.081875374	0.147859688	0.086397919	0.090182935	0.363396745	0.0785047	0.121275111	0.70635925
0	0.753453447	0.749000826	0.710749	0.712862567	0.114801083	0.163691101	0.715031923	0.7486203	0.713223924	0.104180742	0.377716614	0.109050734	0.082374202	0.094323441	0.122546656	0.123232722	0.110194743	0.113976965	0.111956921	0.111705611	0.11582586	0.094714523	0.085352239	0.096858362	0.110844311	0.147693287	0.103937663	0.080121117	0.392555392	0.0785047	0.121582222	0.70595175
0	0.713454739	0.738586055	0.708552521	0.748697499	0.113571103	0.147722191	0.740116078	0.725450132	0.730001373	0.119226023	0.392004999	0.098909177	0.123533315	0.126460293	0.092538941	0.098430558	0.0792095	0.12813569	0.093319393	0.105297283	0.11848824	0.114306567	0.113994856	0.090314795	0.09470953	0.150270219	0.10866975	0.107497663	0.394795841	0.0785047	0.121889333	0.70554425
0	0.719459043	0.722830708	0.746112194	0.726224074	0.101449241	0.129789879	0.715824926	0.71091144	0.705779037	0.08336386	0.380483494	0.090952034	0.120834997	0.103438399	0.108461825	0.1097557	0.102023267	0.125114444	0.125002302	0.119960171	0.123894647	0.106151135	0.101747923	0.087870612	0.110522046	0.138848072	0.086574548	0.120614608	0.392394263	0.0785047	0.122196444	0.70513675
0	0.739528523	0.722531382	0.743745982	0.725737776	0.10761944	0.14075485	0.72007731	0.709186115	0.714502668	0.101690378	0.379546827	0.111127686	0.098289624	0.115435126	0.079816007	0.106884564	0.122820999	0.083116175	0.092602722	0.091872804	0.127233397	0.085618787	0.084168259	0.105787163	0.122492252	0.142392464	0.110277416	0.106349549	0.40094709	0.0785047	0.121721636	0.705172067
0	0.712628002	0.718256416	0.715355298	0.753527578	0.09545919	0.161725334	0.743987268	0.723593892	0.729832034	0.107995574	0.407043505	0.094518554	0.086965463	0.079142483	0.086264633	0.123230294	0.084206122	0.126181699	0.086948699	0.087312489	0.084497875	0.097522878	0.113548643	0.091260523	0.097186584	0.141391772	0.120701729	0.120498849	0.403637483	0.0785047	0.120674364	0.705570511
0	0.731573289	0.753595363	0.750724864	0.743481221	0.087035971	0.12819531	0.731026461	0.747414233	0.74788026	0.087863304	0.373509706	0.083688306	0.100027316	0.108772359	0.120200244	0.08921299	0.100631758	0.086644483	0.11576303	0.100064018	0.104453188	0.098333162	0.087504007	0.09379588	0.116841578	0.16882318	0.117618161	0.088752314	0.383022877	0.0785047	0.119627091	0.705968956
0	0.742433746	0.721277449	0.740582407	0.755417256	0.09846437	0.136928764	0.75184064	0.717097885	0.713420248	0.109071207	0.349694573	0.105282945	0.099315607	0.107327266	0.088249368	0.078697658	0.111482094	0.127027454	0.102361418	0.102287452	0.119603441	0.107341785	0.118688104	0.079282131	0.086909033	0.123316965	0.091733018	0.109567444	0.341310265	0.0785047	0.12043	0.7063674
0	0.7530903	0.714568347	0.739490367	0.718323833	0.12449356	0.172593599	0.709540688	0.746200059	0.743258892	0.081101799	0.337676133	0.086748212	0.114942874	0.118873641	0.119994102	0.122533773	0.093243349	0.108355033	0.111176927	0.117765745	0.11035584	0.079474775	0.104202505	0.107879105	0.104490934	0.144097144	0.094239648	0.087205744	0.327343118	0.0785047	0.12427	0.706648043
0	0.742863454	0.724323114	0.755777321	0.711069599	0.090093704	0.17648963	0.728095857	0.738992677	0.740811607	0.107577779	0.348725742	0.122963367	0.099115116	0.111539835	0.095695175	0.090547514	0.126309852	0.090802788	0.127120229	0.085324012	0.126486951	0.107670435	0.10621335	0.126919348	0.110164212	0.175741029	0.087951211	0.093268423	0.359680835	0.078791432	0.136175	0.706258261
0	0.743360879	0.742949933	0.707553068	0.725097588	0.097160358	0.165256396	0.734481215	0.7071758	0.707593109	0.121227258	0.376653763	0.112432874	0.126700396	0.123021443	0.11266585	0.091353254	0.113824335	0.082624781	0.094761397	0.08167781	0.126456342	0.125719828	0.089502261	0.121602407	0.114805707	0.183856273	0.101483687	0.08003517	0.412286933	0.079110023	0.154147	0.705868478
0	0.725844676	0.740773697	0.72669136	0.730492324	0.095656715	0.219609194	0.733732054	0.74476751	0.729921559	0.104414913	0.423381605	0.121815739	0.125027865	0.12454726	0.08204693	0.111474466	0.08976894	0.094430675	0.083250587	0.110803938	0.127758876	0.084772253	0.118658058	0.079825629	0.094748419	0.185098693	0.095762545	0.114503434	0.440079631	0.079428614	0.169620538	0.705478696
0	0.717063498	0.740133522	0.729588097	0.733601706	0.083926311	0.185674935	0.746279741	0.751217065	0.753658434	0.101698449	0.45770769	0.117880258	0.127317921	0.087358848	0.116462658	0.094973429	0.107485321	0.120424446	0.119317962	0.081201583	0.083114414	0.116354693	0.106071687	0.111448482	0.09293156	0.227578145	0.093738019	0.127351774	0.472619279	0.079747205	0.182488	0.705088913
0	0.731274357	0.705543122	0.734407057	0.754063413	0.103737377	0.212749156	0.711536774	0.72984749	0.710854402	0.085556954	0.495708392	0.118454789	0.09540416	0.087733104	0.103078189	0.119385141	0.122068024	0.081939594	0.096373299	0.08491383	0.09998084	0.126630239	0.106655268	0.096068657	0.123904275	0.196131349	0.124692295	0.115554567	0.463573165	0.0781041	0.191475	0.705231833
0	0.716612606	0.724376018	0.709822225	0.730301497	0.116743341	0.214456908	0.720664577	0.747359321	0.742819427	0.076514073	0.491090628	0.106747722	0.08961231	0.114648882	0.122265097	0.119284536	0.102992985	0.092823755	0.104355069	0.10982788	0.091142097	0.105544377	0.096202138	0.080803081	0.105851813	0.210191357	0.095084721	0.112936469	0.470718779	0.0751001	0.19424	0.705658738
0	0.748205038	0.751160424	0.739093374	0.726129786	0.117326775	0.214705296	0.706191744	0.712653327	0.738012712	0.109929589	0.496662794	0.107617465	0.116431138	0.075131355	0.086584721	0.119364748	0.109712803	0.078696644	0.081262935	0.097880048	0.078798703	0.108079381	0.108153915	0.099136996	0.076754853	0.239038733	0.091067258	0.099200554	0.51723016	0.0720961	0.194690652	0.706085643
0	0.739659193	0.722429789	0.709127809	0.756262061	0.112721816	0.201188089	0.754067916	0.744501722	0.736221694	0.116347332	0.485118735	0.110975197	0.08704356	0.09603338	0.095370041	0.096081787	0.12128706	0.084451002	0.080387967	0.103671141	0.083271278	0.091679636	0.080198936	0.097363089	0.10792688	0.228463541	0.106184342	0.090645164	0.499577542	0.07654202	0.195591957	0.706512548
0	0.747537764	0.736580146	0.734567527	0.7197759	0.107467591	0.218166616	0.745040968	0.753012809	0.731657126	0.10299558	0.534389469	0.104365193	0.094861627	0.103316093	0.094005568	0.128383803	0.130410009	0.091425153	0.096000938	0.128741975	0.128615183	0.11126892	0.118060896	0.114172725	0.097919201	0.231176922	0.091743134	0.100561542	0.514453075	0.0883178	0.196951077	0.706726
0	0.74641988	0.721615759	0.742327262	0.739992236	0.120041253	0.229985738	0.744291208	0.748361379	0.735118633	0.110900737	0.558267239	0.131722825	0.131166194	0.141849395	0.153382935	0.112996064	0.111683234	0.140232574	0.1464842	0.144824701	0.131378613	0.107541831	0.148239268	0.149446544	0.143988635	0.223005875	0.115402283	0.119456311	0.547555643	0.1051404	0.199308444	0.706726
0	0.73018126	0.712976719	0.731121531	0.754938831	0.158255191	0.251309155	0.713669242	0.719696058	0.728051213	0.142424191	0.601342871	0.167329307	0.168942746	0.128880072	0.145295187	0.154927879	0.133127306	0.127993694	0.138717446	0.148762963	0.170882458	0.142937214	0.146109662	0.131139404	0.166894634	0.208968299	0.159850523	0.17182633	0.585368751	0.123669609	0.201906091	0.706726
0	0.722202249	0.726143783	0.737606032	0.740283552	0.184758542	0.21539998	0.724191977	0.717377088	0.710537972	0.182180383	0.619701508	0.14346268	0.160862208	0.18036447	0.144963856	0.175684964	0.148417688	0.171575058	0.159929921	0.154567299	0.1901527	0.158821515	0.173364566	0.162469522	0.157414777	0.251951185	0.169493077	0.152270463	0.600476831	0.140735696	0.204404941	0.706726
0	0.741028664	0.747534089	0.717338581	0.721608445	0.204029198	0.223735466	0.71421673	0.732765441	0.721179035	0.199890612	0.663365182	0.182821822	0.168589846	0.19693823	0.193635604	0.16209523	0.159246886	0.166490362	0.19033923	0.16378503	0.178296492	0.172180986	0.172975439	0.160753723	0.164572483	0.250162718	0.167813408	0.184667854	0.625748325	0.157801783	0.206031412	0.706649702
0	0.755610824	0.755326998	0.738551146	0.732824539	0.217427239	0.220397177	0.731104247	0.726136068	0.734334965	0.246626523	0.674807126	0.235002761	0.217301574	0.239984485	0.238703969	0.239923579	0.213818845	0.245934653	0.254233126	0.257694488	0.231923994	0.254200237	0.243736598	0.232416103	0.251637958	0.22895701	0.255538617	0.223615013	0.670794336	0.2133646	0.207085083	0.706268213
0	0.744383417	0.748986215	0.724918838	0.705959882	0.303806651	0.22258621	0.746319336	0.729842212	0.737553396	0.327679999	0.643083651	0.324887125	0.326325993	0.292340617	0.296077387	0.324101326	0.309495587	0.30460782	0.317986311	0.32818745	0.291015705	0.302199405	0.293618115	0.315791473	0.295603687	0.249759148	0.3008595	0.301375065	0.676010866	0.279673	0.208011308	0.705886723
0	0.746984276	0.709696278	0.710690876	0.749694674	0.346685162	0.21891281	0.737148674	0.755200416	0.752044027	0.387427804	0.657732935	0.371781077	0.370415487	0.343819638	0.377948116	0.353455209	0.370724375	0.354497443	0.358980687	0.387398225	0.362573457	0.380603535	0.380250026	0.34502787	0.352890885	0.225750503	0.367509457	0.347382508	0.656686543	0.340271909	0.209493333	0.705505234
0	0.740427983	0.722009345	0.723999321	0.725342938	0.418486558	0.212663981	0.73954382	0.735347668	0.754012203	0.411475975	0.658844921	0.454992811	0.424715609	0.437131167	0.447641291	0.417580276	0.451787172	0.447368987	0.415334124	0.437747407	0.419152072	0.445349647	0.445649456	0.43920052	0.415844731	0.229902965	0.432239369	0.424620189	0.640694624	0.405841	0.211521	0.705123745
0	0.737091377	0.719131014	0.720467596	0.722384835	0.466423515	0.234375098	0.739303067	0.754569988	0.712004383	0.45463981	0.651745802	0.451485455	0.45547201	0.423459512	0.434911256	0.464208299	0.45890416	0.463143432	0.454550526	0.426754946	0.445180258	0.436373332	0.469929783	0.437045466	0.425675931	0.251646862	0.431480829	0.461903469	0.656766811	0.422225438	0.211904889	0.707324556
0	0.748954187	0.72720075	0.723374762	0.758839561	0.435631409	0.224473741	0.747776567	0.735832592	0.744397228	0.449857766	0.68006251	0.467849389	0.465427076	0.428919688	0.452538814	0.450594564	0.440874911	0.472726033	0.425997828	0.429552969	0.447462829	0.429233025	0.448034471	0.455745701	0.4534131	0.217257167	0.429902049	0.466458346	0.670995452	0.425817563	0.212291731	0.711310481
0	0.74053111	0.76491742	0.746841203	0.73872741	0.430133058	0.255993827	0.758687285	0.737592328	0.745833645	0.42739141	0.65658666	0.447506064	0.440739981	0.430545974	0.445823637	0.431683693	0.448844099	0.42408168	0.43820977	0.433187922	0.437046547	0.426811911	0.446909516	0.431657974	0.444255956	0.260146578	0.447270056	0.46925492	0.691768955	0.424065375	0.2125575	0.715695
0	0.754731045	0.738886957	0.7376208	0.725856788	0.449497938	0.239253807	0.742822181	0.750107191	0.735165305	0.467201749	0.660085856	0.449574304	0.456946131	0.444843892	0.430198395	0.433851596	0.435221339	0.454332649	0.454243218	0.423897571	0.428998913	0.45418932	0.452304045	0.444132043	0.459818978	0.212896965	0.423840927	0.449331975	0.658245443	0.422313188	0.212823269	0.711474412
0	0.676047385	0.710108563	0.693307887	0.676877332	0.436258656	0.258966661	0.681675569	0.709849328	0.690458817	0.445389125	0.660438598	0.429482825	0.430718403	0.454144411	0.450551679	0.453425317	0.457170337	0.420895404	0.450131348	0.456774434	0.44148904	0.441741898	0.462658711	0.421161734	0.444886794	0.228029695	0.442276827	0.461420785	0.687249594	0.420527619	0.213259903	0.672646
0	0.649324297	0.642989587	0.611786602	0.630006067	0.439295856	0.262402541	0.629562327	0.623042203	0.624675922	0.458758981	0.671113639	0.451916895	0.46812949	0.462999352	0.467066348	0.448341229	0.426031848	0.425514865	0.43645827	0.42740175	0.445536836	0.465470377	0.421753833	0.431644957	0.439433116	0.21612876	0.448087058	0.455614642	0.684888497	0.42019381	0.213706032	0.600897
0	0.490438927	0.493845596	0.528428792	0.493154546	0.459436963	0.243423459	0.493679419	0.488151114	0.519052212	0.422878111	0.693340964	0.468007939	0.455451623	0.444782271	0.425247929	0.434451437	0.457162078	0.425199721	0.469307563	0.451656341	0.436076228	0.440726044	0.429223507	0.433043983	0.422930426	0.23628918	0.451799106	0.422020443	0.697490598	0.41986	0.214152161	0.485501111
0	0.416347654	0.43415368	0.432049213	0.392653515	0.461485164	0.220234769	0.434301387	0.393389892	0.43698106	0.432649063	0.689572767	0.446226878	0.42787152	0.421965415	0.464525262	0.450641439	0.460015645	0.437881642	0.425687982	0.459018568	0.45376063	0.427229106	0.46670591	0.445095452	0.430210765	0.253778318	0.421237061	0.426823489	0.691984881	0.41952619	0.214286	0.3889988
0	0.339431495	0.324539206	0.333479951	0.348311239	0.453170819	0.260612629	0.323150139	0.359182298	0.323737213	0.451712468	0.67887449	0.443139713	0.441297859	0.434850618	0.44668225	0.45495427	0.456420684	0.431139385	0.455952849	0.447471656	0.441313676	0.446158963	0.466555107	0.429913244	0.446352668	0.259962031	0.454654022	0.430825783	0.67090623	0.419159	0.214286	0.319283
0	0.318303832	0.350206479	0.343721466	0.327302562	0.440614665	0.243964039	0.329878557	0.345730943	0.352838947	0.426448761	0.662969448	0.459451869	0.451418243	0.451850123	0.441136399	0.433805117	0.436625731	0.437075575	0.427599416	0.438639261	0.441551719	0.466623133	0.442417785	0.437074055	0.440300796	0.240948718	0.428234762	0.432103619	0.652665601	0.419768565	0.214286	0.312951824
0	0.345924142	0.34618443	0.348690308	0.327811837	0.45252262	0.258466765	0.33874671	0.311332611	0.33925462	0.452305417	0.628973272	0.425013816	0.466876489	0.459697462	0.427997172	0.440991788	0.449594379	0.432859122	0.442110501	0.461457436	0.460029306	0.453425883	0.460919758	0.457768985	0.46542629	0.254489822	0.450047254	0.428892267	0.629294383	0.42037813	0.214286	0.309715833
0	0.343389534	0.348578897	0.360447783	0.348946652	0.431691769	0.235635433	0.336467175	0.340558758	0.358315255	0.440234851	0.649122622	0.465027673	0.447454244	0.435445221	0.433364996	0.439097982	0.444435301	0.440340912	0.462599857	0.436231737	0.461765514	0.440720568	0.467431656	0.441668669	0.423802173	0.242544654	0.451390942	0.432740538	0.611318165	0.420987696	0.214411636	0.312705417
0	0.35488158	0.322404758	0.361713332	0.358648754	0.452460801	0.245402687	0.355999194	0.351723248	0.320789636	0.459882167	0.620319538	0.421790938	0.452920982	0.446490662	0.443965701	0.460666862	0.425960513	0.44264918	0.439592739	0.437565916	0.459202894	0.434546788	0.455233125	0.424384889	0.443772723	0.252583641	0.46021524	0.435370315	0.604531234	0.421597261	0.215039818	0.31573317
0	0.344445901	0.338404322	0.335355657	0.333510656	0.456359716	0.219206179	0.342653779	0.321635274	0.330779604	0.455245943	0.608052273	0.448176614	0.456641105	0.46352189	0.449239331	0.429374517	0.46403603	0.454604023	0.426412061	0.461849154	0.462062956	0.464995767	0.441216773	0.442101566	0.449490785	0.216129518	0.42541384	0.47018049	0.624609129	0.422600159	0.215668	0.316114872
0	0.357062532	0.341935936	0.324628725	0.364583854	0.453925651	0.262597622	0.327862091	0.327328943	0.319075984	0.44294893	0.607641767	0.457797659	0.470034353	0.453630892	0.441607034	0.468977953	0.458171712	0.463252126	0.451720754	0.449061299	0.44893785	0.471127281	0.444159262	0.447598674	0.430577507	0.240198243	0.466610734	0.441208026	0.612211407	0.423874477	0.216359	0.316496574
0	0.34571707	0.343402792	0.356715848	0.36455673	0.44246427	0.249897688	0.352352526	0.357429288	0.342084686	0.440149724	0.64598254	0.453436177	0.432790502	0.451970025	0.463804536	0.439630599	0.438515048	0.438648516	0.438845306	0.438198632	0.452907891	0.443998787	0.447089991	0.466414831	0.452196156	0.230310193	0.444363011	0.440014892	0.636791717	0.425148795	0.217793717	0.316878277
0	0.364461439	0.360245831	0.322950838	0.327561848	0.444643182	0.224453417	0.324691607	0.324193073	0.355678767	0.443430092	0.656344811	0.450346046	0.446709154	0.442966771	0.470507171	0.45140101	0.474897292	0.468622232	0.433025848	0.46304689	0.457960601	0.429787123	0.460355574	0.441605293	0.469291524	0.234624347	0.446404062	0.446644424	0.664790553	0.426423114	0.219228434	0.317259979
0	0.361061607	0.351375246	0.325430215	0.355901243	0.43670481	0.255674405	0.350394809	0.36158396	0.331638269	0.474077083	0.663228465	0.444156398	0.443754556	0.448715267	0.464835361	0.467310275	0.437319466	0.465154175	0.463113498	0.436278254	0.433030214	0.437209844	0.451384272	0.469220263	0.438031624	0.269010606	0.44440163	0.443242627	0.653019218	0.428130756	0.220663151	0.317489
0	0.34286911	0.357780913	0.335280406	0.348265594	0.470702611	0.241888084	0.349188127	0.363666803	0.328757012	0.453747874	0.645161588	0.461013523	0.465629481	0.470634845	0.451256143	0.464787636	0.445931579	0.47223963	0.455229778	0.476988294	0.443218342	0.459721914	0.478597741	0.459218521	0.438714988	0.232538086	0.458704039	0.468800087	0.648787791	0.430934533	0.222097868	0.317489
0	0.356930158	0.344051143	0.359876928	0.363435124	0.458371657	0.227777823	0.328954313	0.318126778	0.334053482	0.455863159	0.666264449	0.479395948	0.478272705	0.450898722	0.463947248	0.441228898	0.454297556	0.442847923	0.442874124	0.444849484	0.464524568	0.443032563	0.45147321	0.436457392	0.436807199	0.249556398	0.448509316	0.451725506	0.629342238	0.433738311	0.223532585	0.317489
0	0.341140532	0.365283792	0.34662806	0.347615863	0.454273232	0.235550943	0.326600401	0.336346963	0.340151568	0.45925138	0.652140451	0.47066798	0.461075637	0.459672426	0.468597342	0.471373063	0.448366548	0.439813898	0.441602816	0.440722525	0.451790087	0.451114507	0.453493132	0.449542798	0.469595788	0.236104306	0.454848089	0.442787068	0.647069861	0.436542089	0.224827	0.317489
0	0.359008818	0.32090258	0.346877616	0.352675644	0.478098927	0.238346945	0.325886358	0.325959317	0.354437965	0.486609967	0.603995333	0.486682541	0.479637042	0.45773705	0.445719209	0.445796519	0.449098633	0.46986338	0.449425083	0.443030945	0.477694247	0.462429072	0.484138869	0.468801045	0.440275999	0.254266894	0.456798283	0.470204995	0.64451754	0.439345867	0.225907	0.317568733
0	0.334091479	0.345043301	0.364259299	0.355151148	0.452294288	0.238319657	0.325447755	0.34497854	0.343461683	0.451409996	0.602737944	0.445408498	0.456775993	0.474432579	0.465263648	0.487751362	0.475723012	0.475531688	0.447191349	0.478931631	0.453815503	0.45780292	0.467725761	0.464440729	0.455009195	0.276895176	0.471965251	0.458230021	0.633848381	0.440454048	0.226987	0.3179674
0	0.367173394	0.332449084	0.34711998	0.337621181	0.483029529	0.262358916	0.328503437	0.323449189	0.337491777	0.484907997	0.623963687	0.466339303	0.468281814	0.469176809	0.456311325	0.485108449	0.44981527	0.446368743	0.456977315	0.481671708	0.442763172	0.456696143	0.478252043	0.450720388	0.489479048	0.233801963	0.474009961	0.458934766	0.612938182	0.440787857	0.227208696	0.318366067
0	0.332675285	0.34280975	0.319263603	0.331339922	0.481948016	0.26461589	0.366512678	0.32072812	0.364038894	0.442115438	0.595074072	0.446628084	0.460560884	0.473710509	0.47005039	0.466871898	0.467238313	0.445912854	0.488648919	0.478142944	0.455949756	0.464117396	0.447365527	0.4530723	0.47935369	0.27464209	0.490726484	0.444546081	0.607520243	0.441121667	0.226908261	0.318764733
0	0.32280494	0.353406589	0.359632264	0.321001387	0.483766894	0.254092332	0.319958817	0.365824856	0.367426287	0.45854372	0.588879611	0.46871857	0.486296926	0.466011163	0.488635923	0.475425913	0.456264067	0.471347165	0.468062004	0.479367915	0.469273725	0.453250222	0.464117217	0.48046515	0.453639673	0.232921876	0.488673539	0.48481357	0.6113147	0.441455476	0.226728	0.3191634
0	0.356538818	0.329390557	0.349418056	0.342583782	0.46051596	0.254402171	0.366853356	0.367557232	0.350391006	0.480307989	0.60585172	0.476445912	0.475812621	0.461929529	0.463353597	0.490846285	0.465145711	0.482618248	0.454390902	0.490066366	0.490460341	0.443394219	0.445744089	0.472872113	0.47611242	0.23603991	0.45952401	0.464901427	0.579934063	0.442006617	0.226728	0.318977638
0	0.360155367	0.349003985	0.34259162	0.350849552	0.46176469	0.255491973	0.31988055	0.336642337	0.325197495	0.459743398	0.61026472	0.449974062	0.48402306	0.466477423	0.444259635	0.448876231	0.488864834	0.483332122	0.464467026	0.465924461	0.477059449	0.475525886	0.475770244	0.449809653	0.449495939	0.256288469	0.45225311	0.446483982	0.576502493	0.442603213	0.223963333	0.318595936
0	0.364331139	0.334523043	0.331636242	0.332162731	0.486266546	0.271198901	0.366769767	0.350424504	0.349129323	0.474140129	0.604787181	0.482077861	0.448704251	0.44652919	0.489671503	0.480811962	0.453994266	0.447671657	0.476654198	0.482549633	0.479093879	0.451139987	0.478382391	0.47900641	0.474690392	0.228334507	0.489178616	0.488445869	0.598117053	0.443199809	0.221926053	0.318214234
0	0.334183747	0.361874892	0.330737351	0.343725577	0.466991864	0.252548384	0.332712316	0.321229897	0.336983537	0.466447462	0.602938993	0.463748966	0.457757771	0.464347828	0.490045517	0.485148999	0.443846848	0.480360339	0.47118119	0.464924808	0.47174786	0.483929534	0.489743932	0.463871725	0.486647139	0.224900499	0.458231007	0.457881198	0.588983405	0.443796404	0.220834474	0.317832532
0	0.357692463	0.324158731	0.341539477	0.329772332	0.472855202	0.250770129	0.343742654	0.3278846	0.367048687	0.444835921	0.629591651	0.489242788	0.482709599	0.492782389	0.462243137	0.483399307	0.489658103	0.48952062	0.474780516	0.491514289	0.470995501	0.46475678	0.477331386	0.467447059	0.489317708	0.253708701	0.471870762	0.475021683	0.61489684	0.444327791	0.220747348	0.317489
0	0.344401517	0.322609389	0.328856074	0.332364409	0.478441038	0.266507131	0.360605961	0.319469192	0.331830364	0.473629756	0.617178398	0.459027892	0.454478528	0.48271175	0.456675154	0.453219831	0.477677795	0.466287287	0.486832436	0.443741418	0.487461898	0.460045292	0.478180944	0.479039798	0.461094118	0.222417726	0.489641906	0.476768595	0.594783488	0.443675698	0.221047783	0.317489
0	0.340653744	0.365444845	0.319919115	0.350012705	0.491069469	0.249627778	0.362309245	0.340956966	0.352798571	0.473102022	0.600144048	0.446076162	0.444726711	0.479474499	0.482366587	0.464455672	0.468771195	0.446557989	0.462058402	0.492087	0.462678535	0.480324341	0.485709785	0.463084132	0.467339115	0.270344936	0.447526031	0.453024835	0.641573924	0.443023605	0.221085946	0.317489
0	0.358526513	0.3251341	0.325951091	0.362058665	0.469687161	0.237670185	0.326939528	0.324993836	0.344249295	0.474842385	0.606701883	0.453345069	0.464199107	0.480654043	0.467950624	0.443094349	0.468474956	0.45443542	0.479819293	0.470881221	0.465274859	0.479689108	0.465766598	0.443090782	0.476347387	0.247865736	0.455256327	0.490370823	0.600740207	0.442371512	0.220899189	0.317489
0	0.365084325	0.325115904	0.330411315	0.360544323	0.473548248	0.26856939	0.350524978	0.367054346	0.327149552	0.458855451	0.603782376	0.445861066	0.488562605	0.479548459	0.469845777	0.457983693	0.446865348	0.478312672	0.449554259	0.459042947	0.452131679	0.450417167	0.464643353	0.445451441	0.476925514	0.239404178	0.463071817	0.474974718	0.619328769	0.441719419	0.220712432	0.317489
0	0.321302644	0.325266629	0.327384503	0.327984754	0.469319559	0.242503156	0.364550547	0.338842117	0.351960755	0.465439898	0.62093157	0.488294702	0.453879383	0.482938451	0.475014623	0.447510036	0.490618959	0.442799516	0.443681126	0.468650088	0.478638593	0.446652175	0.481080144	0.470328344	0.463819138	0.255843744	0.4696611	0.467839927	0.610398161	0.440774935	0.220507	0.317489
0	0.352922553	0.32196747	0.347773653	0.337443696	0.486226026	0.248480217	0.366274356	0.365257605	0.32001175	0.474959116	0.60300855	0.440688952	0.468357694	0.478378261	0.444490249	0.462396292	0.45781886	0.461096557	0.456855767	0.454859654	0.46720502	0.448572295	0.481108781	0.462170495	0.458084034	0.265773656	0.484846489	0.483318863	0.635521563	0.439870419	0.218403087	0.317489
0	0.329235322	0.340210228	0.358674182	0.361883151	0.482154181	0.252312292	0.322885763	0.353701352	0.326710706	0.483356033	0.609701666	0.444699325	0.456943555	0.487898949	0.482594851	0.46757965	0.470228033	0.465976657	0.479824724	0.446919544	0.456835313	0.470336361	0.448487708	0.485296933	0.452979164	0.235413041	0.449877184	0.466818276	0.607652439	0.438965903	0.216299174	0.317489
0	0.337433778	0.350933785	0.358019748	0.330315401	0.442824081	0.247054609	0.326433961	0.346533586	0.319771916	0.43708501	0.616150998	0.434952615	0.435674049	0.43990009	0.481479012	0.473933282	0.454000444	0.48202351	0.453209501	0.467594932	0.469382007	0.476426631	0.435615778	0.439076786	0.43814234	0.24776112	0.482683712	0.435402024	0.611153857	0.434332118	0.213115692	0.317489
0	0.330895221	0.359054084	0.357600851	0.36582908	0.408467951	0.220563259	0.354816571	0.344501895	0.361741075	0.404451098	0.639650199	0.410344366	0.42455396	0.419336847	0.404362712	0.42051983	0.399916122	0.409978287	0.448163247	0.433743139	0.404994125	0.425037143	0.402373748	0.418303939	0.421764249	0.240028874	0.421232069	0.423667028	0.638631493	0.399533	0.209925308	0.317489
0	0.359114666	0.357000757	0.352894669	0.348446868	0.369651968	0.210532502	0.319962426	0.35276106	0.359478719	0.389965889	0.599834421	0.358048126	0.398827495	0.382079783	0.399770875	0.384103577	0.384740997	0.363293355	0.38774268	0.397097218	0.357807288	0.365764937	0.364623529	0.384776693	0.365762065	0.245214219	0.396717871	0.397876029	0.563668588	0.35747675	0.206451333	0.317489
0	0.367257691	0.353124546	0.360457893	0.325756288	0.319013968	0.215740095	0.321053244	0.317740444	0.323396762	0.319628545	0.561217785	0.313547463	0.294374121	0.294329731	0.326894781	0.32771022	0.306880519	0.313736003	0.298336808	0.298856222	0.311290104	0.317140264	0.289995937	0.287008919	0.301362449	0.231607835	0.307686692	0.318225468	0.542314928	0.281425	0.202016125	0.317489
0	0.349976549	0.341118875	0.356543226	0.358798951	0.216031469	0.242362252	0.341945276	0.356614789	0.338009743	0.255472697	0.539185278	0.231924297	0.208369	0.207923061	0.206641807	0.251028842	0.218413696	0.211495304	0.252473936	0.218578487	0.239033553	0.251426615	0.237366989	0.251297912	0.252103984	0.217795323	0.222638593	0.23468997	0.516982045	0.20607475	0.198986333	0.317489
0	0.352686642	0.352918408	0.327678843	0.350273655	0.201950401	0.225049186	0.359983691	0.363831979	0.323500429	0.159069615	0.552573672	0.165080482	0.165126955	0.201522441	0.17898751	0.180045045	0.155073139	0.201978221	0.19772461	0.170053544	0.181803697	0.163730262	0.154279135	0.184467225	0.178370094	0.239613793	0.174383057	0.153252618	0.514984439	0.152803375	0.197081333	0.317489
0	0.36410416	0.365391974	0.367156162	0.344811629	0.161806157	0.218906543	0.367341072	0.317903783	0.346093626	0.144548081	0.587109835	0.136011589	0.159360829	0.162645521	0.158841486	0.17138042	0.168410709	0.138741424	0.168859545	0.142755852	0.171821803	0.169872294	0.149940835	0.171594804	0.172031339	0.206961914	0.162219302	0.162238245	0.564882068	0.126324222	0.195675154	0.317489
0	0.351871627	0.342777778	0.322170226	0.330055464	0.115594227	0.216556605	0.317708631	0.358720417	0.364958507	0.140633925	0.596515329	0.111365949	0.123292905	0.114220662	0.126079688	0.109413755	0.109234916	0.137140206	0.119662016	0.153196697	0.138622728	0.117414217	0.140744559	0.138350067	0.111419117	0.234889474	0.152633024	0.12929375	0.628054393	0.10682242	0.19504156	0.317489
0	0.345906696	0.332741656	0.350019927	0.319496819	0.134418697	0.234017256	0.344619373	0.355855793	0.330308258	0.110291736	0.70059469	0.10992591	0.124478639	0.098898555	0.123968929	0.131933953	0.107319852	0.132338591	0.105778602	0.129307449	0.11778189	0.133337074	0.097243275	0.092215241	0.141155686	0.24516201	0.136005226	0.124484665	0.678764869	0.091503827	0.19531796	0.317489
0	0.336531376	0.356979559	0.328247826	0.329157771	0.126866624	0.228318021	0.360556409	0.367345845	0.366982272	0.124568975	0.749526202	0.081785696	0.082046256	0.116637255	0.119538724	0.098141279	0.120567022	0.122898761	0.120393396	0.095807982	0.094377204	0.124361134	0.093199246	0.097219939	0.086217731	0.209687541	0.088131353	0.119056467	0.769600747	0.08139605	0.195622	0.317489
0	0.349536907	0.329627281	0.330001588	0.33586358	0.122031779	0.226689517	0.363264884	0.329190587	0.335298335	0.088547463	0.753772417	0.104083691	0.109852018	0.092998301	0.102732924	0.085382781	0.122568628	0.098400592	0.109018386	0.104257619	0.076507168	0.100117499	0.088402655	0.079542162	0.089606	0.229322102	0.079944263	0.114185576	0.75742369	0.073948625	0.193803053	0.317807933
0	0.336368031	0.329921742	0.33519099	0.349879352	0.102251817	0.2000285	0.360474128	0.36418371	0.328632719	0.080395582	0.761775045	0.097664569	0.093277773	0.077542404	0.105317789	0.114841922	0.103045036	0.111758245	0.098347421	0.1120233	0.110319338	0.097589972	0.082359647	0.105194989	0.112990588	0.225209558	0.118394453	0.075179611	0.767022285	0.073721832	0.191977455	0.3182066
0	0.338986239	0.341840237	0.328498384	0.367910172	0.103515059	0.212653568	0.362548911	0.350705232	0.351896625	0.109003623	0.783366396	0.090776981	0.07704636	0.095913114	0.089281297	0.092782826	0.114273289	0.121126494	0.123754484	0.117678714	0.083585667	0.119865254	0.091556403	0.078406569	0.10549111	0.211776504	0.108025374	0.11436196	0.7526225	0.075371097	0.191034727	0.318605267
0	0.337438919	0.349973273	0.344345602	0.329361765	0.085853422	0.21529315	0.356313045	0.324269942	0.367671168	0.087149611	0.775495797	0.114242584	0.097321132	0.08416989	0.119012183	0.085293892	0.113405234	0.12206911	0.100828437	0.122119422	0.091040212	0.080274172	0.117075867	0.110720108	0.10031578	0.214952341	0.079034266	0.105387887	0.763662397	0.077020362	0.190038846	0.319003933
0	0.340994557	0.348341089	0.365112518	0.355428816	0.104258743	0.208273922	0.323449088	0.330982665	0.34870961	0.12200055	0.737670538	0.120542254	0.114390172	0.118520796	0.099916538	0.079981468	0.11112413	0.089286666	0.128320066	0.108360147	0.091546162	0.104047596	0.093556475	0.102446744	0.093481357	0.236963459	0.103810588	0.082380621	0.739376843	0.07857479	0.189507308	0.317574619
0	0.338474359	0.319434862	0.333034028	0.357620072	0.106348836	0.21299438	0.33875478	0.351495855	0.316480562	0.116483106	0.795150592	0.092046836	0.124992061	0.125437648	0.110506359	0.126693728	0.112155991	0.106278295	0.103454171	0.082352047	0.106280038	0.109965137	0.117706526	0.09420253	0.085583879	0.236634853	0.123647913	0.091506331	0.766324425	0.07892524	0.188975769	0.313303667
0	0.357145334	0.317808221	0.340841787	0.335230038	0.087539562	0.205650548	0.320060133	0.351894053	0.330294022	0.100244672	0.831916898	0.104987593	0.128476477	0.079511664	0.120949039	0.113290226	0.12621468	0.118511164	0.10444836	0.090177859	0.106339113	0.115954062	0.106914232	0.105092339	0.094026138	0.225175644	0.098562113	0.085948416	0.807901894	0.07927569	0.188529478	0.311618545
0	0.32520146	0.329102859	0.345206771	0.322825585	0.104320792	0.227085931	0.356435484	0.320092559	0.323192486	0.079637693	0.830711629	0.101964846	0.128797184	0.112128169	0.093135413	0.122654246	0.106380203	0.089348195	0.118064784	0.123096565	0.119031799	0.091125952	0.107360726	0.114977552	0.087957494	0.207462609	0.094228734	0.107849836	0.823374018	0.07962614	0.188228609	0.314879909
0	0.354150184	0.37400664	0.372952143	0.377766039	0.106479513	0.207466829	0.383620543	0.360707939	0.348783904	0.087196837	0.830839862	0.096784207	0.124538955	0.113650273	0.099763687	0.126678326	0.099645656	0.117068108	0.099127874	0.100434543	0.123203928	0.080817244	0.116256014	0.120404199	0.095578847	0.190273772	0.091425478	0.106772714	0.836135981	0.07972365	0.188269636	0.33722
0	0.450231059	0.442090183	0.441601596	0.445350166	0.089054508	0.224120185	0.429998999	0.432477873	0.42413521	0.092805865	0.816777916	0.12107124	0.12239931	0.091795292	0.10682688	0.113123848	0.112637033	0.102892061	0.101777113	0.112174608	0.118491177	0.086063594	0.117795391	0.094904567	0.084606134	0.217689043	0.089161568	0.082560222	0.82217869	0.07911415	0.188542364	0.421524778
0	0.538248122	0.555350595	0.556836051	0.519715877	0.109663096	0.212169943	0.558088366	0.560036895	0.558989316	0.122125901	0.767869212	0.127629275	0.118552699	0.120663696	0.100697918	0.124375837	0.100531374	0.107667579	0.085147348	0.117678892	0.126976043	0.116980022	0.123547005	0.094069759	0.120109048	0.216358905	0.097519953	0.127926193	0.764721275	0.07850465	0.188123273	0.5139015
0	0.620345882	0.653990639	0.653259182	0.651020964	0.07921092	0.224163193	0.626628078	0.623251065	0.646899518	0.107957707	0.746029467	0.109218375	0.105644093	0.092593089	0.082414356	0.090729734	0.084538847	0.090922554	0.115820466	0.09028945	0.086918555	0.126383409	0.084803508	0.095143994	0.126474788	0.205463313	0.107634657	0.090449922	0.757305564	0.07789515	0.187704182	0.607234933
0	0.737499673	0.728473333	0.746061944	0.740279319	0.093225198	0.232445507	0.727648473	0.75139719	0.727170716	0.093345073	0.701898062	0.086349409	0.098229257	0.078628669	0.114504715	0.121566557	0.099245837	0.081526773	0.105547497	0.105006914	0.123815598	0.096625371	0.116989491	0.110600895	0.088199214	0.229577586	0.090704949	0.0930593	0.713020907	0.07728565	0.185567545	0.70852
0	0.759335616	0.7180298	0.729698816	0.720283298	0.104002004	0.20126622	0.728991877	0.728411564	0.757021966	0.091566681	0.682878133	0.083502878	0.083708152	0.082017385	0.078982799	0.123354167	0.104734164	0.09225867	0.109783857	0.088831297	0.079609621	0.127023416	0.086822696	0.120405608	0.112655908	0.206630007	0.108474159	0.092384874	0.672516726	0.077352027	0.1754035	0.715419231
0	0.718004276	0.74351607	0.754797554	0.760378738	0.094002247	0.205818008	0.758350922	0.758859912	0.752648493	0.09942935	0.713659744	0.106661995	0.110394597	0.117557809	0.099150687	0.092666732	0.097420379	0.123520028	0.117566463	0.078009198	0.089695854	0.093983233	0.079112279	0.115752523	0.079614245	0.191865348	0.117891925	0.079765512	0.672429085	0.07766356	0.160664571	0.714956765
0	0.733553823	0.748893499	0.718648292	0.713260801	0.108084615	0.155379632	0.748585123	0.720923381	0.742603155	0.123163046	0.695857169	0.094401883	0.121173339	0.113545224	0.079838207	0.08164464	0.097888693	0.101501003	0.088997505	0.116307063	0.078417845	0.084833145	0.084344453	0.121766972	0.108789849	0.159257071	0.083173656	0.104370158	0.695162264	0.077975093	0.14447	0.71151
0	0.7127329	0.724532178	0.73374751	0.710507485	0.096383263	0.1789143	0.730913637	0.746479692	0.728224659	0.124541909	0.694529491	0.091695946	0.092016549	0.117456966	0.127076515	0.116656564	0.11585406	0.091760005	0.121181166	0.079378289	0.111866304	0.097524309	0.084973411	0.121848402	0.111754836	0.138987329	0.114748642	0.091087744	0.703490244	0.078286627	0.135253333	0.70852
0	0.735096486	0.731581321	0.737469003	0.756363	0.085378168	0.131876447	0.742416548	0.70851907	0.724898503	0.103896759	0.663196966	0.106144091	0.120640333	0.109828268	0.104749131	0.082879747	0.104749653	0.11678066	0.123868582	0.098287308	0.123872798	0.106763928	0.085047684	0.087271656	0.080492213	0.1424271	0.111061649	0.099067636	0.670921624	0.078632136	0.1277418	0.706934605
0	0.734317343	0.718434452	0.742541651	0.741660894	0.124641402	0.149373028	0.754568378	0.739468772	0.711794437	0.110329817	0.605834013	0.087976572	0.082488489	0.1202215	0.124432226	0.115388931	0.103472379	0.117559332	0.093551721	0.091577735	0.107571543	0.110642498	0.125713717	0.121461926	0.079117455	0.137839847	0.102683458	0.126326359	0.638353209	0.078950727	0.126102857	0.707351814
];																																
